30 Bus Output.txt
CHP6EX9
                   Power Flow Solution by Newton-Raphson Method
                      Maximum Power Mismatch = 7.54898e-07 
                             No. of Iterations = 4 

    Bus  Voltage  Angle    ------Load------    ---Generation---   Injected
    No.  Mag.     Degree     MW       Mvar       MW       Mvar       Mvar 
                                                                          
     1   1.060    0.000     0.000     0.000   260.998   -17.021     0.000
     2   1.043   -5.497    21.700    12.700    40.000    48.822     0.000
     3   1.022   -8.004     2.400     1.200     0.000     0.000     0.000
     4   1.013   -9.661     7.600     1.600     0.000     0.000     0.000
     5   1.010  -14.381    94.200    19.000     0.000    35.975     0.000
     6   1.012  -11.398     0.000     0.000     0.000     0.000     0.000
     7   1.003  -13.150    22.800    10.900     0.000     0.000     0.000
     8   1.010  -12.115    30.000    30.000     0.000    30.826     0.000
     9   1.051  -14.434     0.000     0.000     0.000     0.000     0.000
    10   1.044  -16.024     5.800     2.000     0.000     0.000    19.000
    11   1.082  -14.434     0.000     0.000     0.000    16.119     0.000
    12   1.057  -15.302    11.200     7.500     0.000     0.000     0.000
    13   1.071  -15.302     0.000     0.000     0.000    10.423     0.000
    14   1.042  -16.191     6.200     1.600     0.000     0.000     0.000
    15   1.038  -16.278     8.200     2.500     0.000     0.000     0.000
    16   1.045  -15.880     3.500     1.800     0.000     0.000     0.000
    17   1.039  -16.188     9.000     5.800     0.000     0.000     0.000
    18   1.028  -16.884     3.200     0.900     0.000     0.000     0.000
    19   1.025  -17.052     9.500     3.400     0.000     0.000     0.000
    20   1.029  -16.852     2.200     0.700     0.000     0.000     0.000
    21   1.032  -16.468    17.500    11.200     0.000     0.000     0.000
    22   1.033  -16.455     0.000     0.000     0.000     0.000     0.000
    23   1.027  -16.662     3.200     1.600     0.000     0.000     0.000
    24   1.022  -16.830     8.700     6.700     0.000     0.000     4.300
    25   1.019  -16.424     0.000     0.000     0.000     0.000     0.000
    26   1.001  -16.842     3.500     2.300     0.000     0.000     0.000
    27   1.026  -15.912     0.000     0.000     0.000     0.000     0.000
    28   1.011  -12.057     0.000     0.000     0.000     0.000     0.000
    29   1.006  -17.136     2.400     0.900     0.000     0.000     0.000
    30   0.995  -18.015    10.600     1.900     0.000     0.000     0.000
      
    Total                 283.400   126.200   300.998   125.144    23.300


                           Line Flow and Losses 

     --Line--  Power at bus & line flow    --Line loss--  Transformer
     from  to    MW      Mvar     MVA       MW      Mvar      tap
   
     1        260.998  -17.021  261.553
           2  177.778  -22.148  179.152    5.464   10.524
           3   83.221    5.127   83.378    2.808    7.085
   
     2         18.300   36.122   40.493
           1 -172.314   32.671  175.384    5.464   10.524
           4   45.712    2.705   45.792    1.106   -0.517
           5   82.990    1.703   83.008    2.995    8.178
           6   61.912   -0.958   61.920    2.048    2.264
   
     3         -2.400   -1.200    2.683
           1  -80.412    1.958   80.436    2.808    7.085
           4   78.012   -3.158   78.076    0.771    1.344
   
     4         -7.600   -1.600    7.767
           2  -44.605   -3.222   44.722    1.106   -0.517
           3  -77.242    4.503   77.373    0.771    1.344
           6   70.126  -17.526   72.282    0.604    1.179
          12   44.121   14.646   46.489   -0.000    4.685    0.932
   
     5        -94.200   16.975   95.717
           2  -79.995    6.475   80.257    2.995    8.178
           7  -14.205   10.500   17.664    0.151   -1.687
   
     6          0.000    0.000    0.000
           2  -59.864    3.222   59.951    2.048    2.264
           4  -69.521   18.705   71.994    0.604    1.179
           7   37.523   -1.885   37.570    0.367   -0.598
           8   29.528   -3.754   29.766    0.103   -0.558
           9   27.693   -7.322   28.644    0.000    1.594    0.978
          10   15.823    0.653   15.836    0.000    1.278    0.969
          28   18.819   -9.618   21.134    0.060  -13.086
   
     7        -22.800  -10.900   25.272
           5   14.356  -12.187   18.831    0.151   -1.687
           6  -37.156    1.287   37.178    0.367   -0.598
   
     8        -30.000    0.826   30.011
           6  -29.425    3.196   29.598    0.103   -0.558
          28   -0.575   -2.370    2.438    0.000   -4.368
   
     9          0.000    0.000    0.000
           6  -27.693    8.916   29.093    0.000    1.594
          11    0.000  -15.657   15.657   -0.000    0.462
          10   27.693    6.741   28.501    0.000    0.809
   
    10         -5.800   17.000   17.962
           6  -15.823    0.626   15.835    0.000    1.278
           9  -27.693   -5.932   28.321    0.000    0.809
          20    9.027    3.560    9.704    0.081    0.180
          17    5.372    4.414    6.953    0.014    0.037
          21   15.733    9.842   18.558    0.110    0.237
          22    7.583    4.490    8.813    0.052    0.107
   
    11          0.000   16.119   16.119
           9   -0.000   16.119   16.119   -0.000    0.462
   
    12        -11.200   -7.500   13.479
           4  -44.121   -9.961   45.232   -0.000    4.685
          13    0.000  -10.291   10.291    0.000    0.133
          14    7.856    2.442    8.227    0.075    0.155
          15   17.857    6.947   19.161    0.217    0.428
          16    7.208    3.363    7.954    0.053    0.112
   
    13          0.000   10.423   10.423
          12   -0.000   10.424   10.424    0.000    0.133
   
    14         -6.200   -1.600    6.403
          12   -7.782   -2.287    8.111    0.075    0.155
          15    1.582    0.687    1.724    0.006    0.005
   
    15         -8.200   -2.500    8.573
          12  -17.640   -6.519   18.806    0.217    0.428
          14   -1.576   -0.681    1.717    0.006    0.005
          18    6.014    1.744    6.262    0.039    0.080
          23    5.001    2.956    5.810    0.031    0.063
   
    16         -3.500   -1.800    3.936
          12   -7.154   -3.251    7.858    0.053    0.112
          17    3.654    1.451    3.932    0.012    0.027
   
    17         -9.000   -5.800   10.707
          16   -3.643   -1.424    3.911    0.012    0.027
          10   -5.357   -4.376    6.918    0.014    0.037
   
    18         -3.200   -0.900    3.324
          15   -5.975   -1.665    6.203    0.039    0.080
          19    2.775    0.765    2.879    0.005    0.010
   
    19         -9.500   -3.400   10.090
          18   -2.770   -0.755    2.871    0.005    0.010
          20   -6.730   -2.645    7.231    0.017    0.034
   
    20         -2.200   -0.700    2.309
          19    6.747    2.679    7.259    0.017    0.034
          10   -8.947   -3.379    9.564    0.081    0.180
   
    21        -17.500  -11.200   20.777
          10  -15.623   -9.606   18.340    0.110    0.237
          22   -1.877   -1.594    2.462    0.001    0.001
   
    22          0.000    0.000    0.000
          10   -7.531   -4.384    8.714    0.052    0.107
          21    1.877    1.596    2.464    0.001    0.001
          24    5.654    2.788    6.304    0.043    0.067
   
    23         -3.200   -1.600    3.578
          15   -4.970   -2.893    5.751    0.031    0.063
          24    1.770    1.293    2.192    0.006    0.012
   
    24         -8.700   -2.400    9.025
          22   -5.611   -2.721    6.236    0.043    0.067
          23   -1.764   -1.280    2.180    0.006    0.012
          25   -1.325    1.602    2.079    0.008    0.014
   
    25          0.000    0.000    0.000
          24    1.333   -1.588    2.073    0.008    0.014
          26    3.545    2.366    4.262    0.045    0.066
          27   -4.877   -0.778    4.939    0.026    0.049
   
    26         -3.500   -2.300    4.188
          25   -3.500   -2.300    4.188    0.045    0.066
   
    27          0.000    0.000    0.000
          25    4.903    0.827    4.972    0.026    0.049
          28  -18.184   -4.157   18.653    0.000    1.309
          29    6.189    1.668    6.410    0.086    0.162
          30    7.091    1.661    7.283    0.161    0.304
   
    28          0.000    0.000    0.000
          27   18.184    5.466   18.987    0.000    1.309    0.968
           8    0.575   -1.999    2.080    0.000   -4.368
           6  -18.759   -3.467   19.077    0.060  -13.086
   
    29         -2.400   -0.900    2.563
          27   -6.104   -1.506    6.286    0.086    0.162
          30    3.704    0.606    3.753    0.033    0.063
   
    30        -10.600   -1.900   10.769
          27   -6.930   -1.358    7.062    0.161    0.304
          29   -3.670   -0.542    3.710    0.033    0.063
   
    Total loss                            17.599   22.244
diary off
